17
	Energy:      13.6089721
C         -0.08302       -0.14952       -0.01974
N          0.05790        0.33596        1.37087
C          1.45215        0.13604        1.82413
C         -0.86024       -0.41864        2.25217
C         -0.27715        1.77609        1.42680
H         -1.12514       -0.01391       -0.38682
H          0.59572        0.40372       -0.70704
H          0.16622       -1.23202       -0.09239
H          1.58836        0.49584        2.86873
H          1.73137       -0.94116        1.79509
H          2.16675        0.69150        1.17608
H         -1.91918       -0.28176        1.93735
H         -0.63446       -1.50837        2.22550
H         -0.77135       -0.07749        3.30807
H         -0.18240        2.16857        2.46417
H          0.40111        2.37001        0.77383
H         -1.32189        1.95688        1.08764
